LAMMPS (29 Oct 2020)
package gpu 1
package gpu 1
#lammps input script

variable	iseed1 equal 12345
variable	nthermo equal 5000
variable	nconfo1 equal ceil(1e4)

variable	tempe1_1 equal 550
variable	tempe1_2 equal 550
variable	dt1 equal 1.6
variable	nrun1 equal ceil(1e5)

#variable        sd equal 78.266

units           real
atom_style      full

boundary        p p p
box             tilt large

pair_style      lj/cut/coul/long 10.0 10.0
pair_modify     mix geometric
#pair_modify     mix arithmetic

special_bonds   lj 0 0 0.5 coul 0 0 0.5
#special_bonds   dreiding
bond_style      harmonic
angle_style     harmonic
dihedral_style  charmm
improper_style  cvff
#improper_style  umbrella

read_data       "lmp_tmp1.data"
Reading data file ...
  orthogonal box = (0.0000000 0.0000000 0.0000000) to (94.373600 94.373600 94.373600)
  reading atoms ...
  5460 atoms
  scanning bonds ...
  scanning angles ...
  scanning dihedrals ...
  reading bonds ...
  5430 bonds
  reading angles ...
  10800 angles
  reading dihedrals ...
  19350 dihedrals
Finding 1-2 1-3 1-4 neighbors ...
     4 = max # of 1-2 neighbors
     6 = max # of 1-3 neighbors
    12 = max # of 1-4 neighbors
    16 = max # of special neighbors

neighbor        2.0 bin
#neigh_modify    delay 0
neigh_modify    delay 10 every 1 check yes one 2000

kspace_style    pppm 1e-5
kspace_modify   order 4

#group           poly molecule 1

thermo_style    custom step time temp pe ke etotal enthalpy press vol density
thermo          5000

minimize        1e-4 1e-6 5000 1000000
PPPM initialization ...
  G vector (1/distance) = 0.18008997
  grid = 20 20 20
  stencil order = 4
  estimated absolute RMS force accuracy = 0.0033202034
  estimated relative force accuracy = 9.998694e-06
  3d grid and FFT values/proc = 9375 4000
Step Time Temp PotEng KinEng TotEng Enthalpy Press Volume Density
0            0            0    713.85457            0    713.85457    13308.413    1027.4377     840526.8  0.050000443
Loop time of 4.60927 on 2 procs for 818 steps with 5460 atoms

Minimization stats:
  Stopping criterion = energy tolerance
  Energy initial, next-to-last, final =
  Force two-norm initial, final = 741.58255 6.8806699
  Force max component initial, final = 22.437372 0.33229584
  Final line search alpha, max atom move = 0.020919448 0.0069514455
  Iterations, force evaluations = 818 1636

reset_timestep  0

fix             1 all shake 1e-5 1000 0 m 1.0
       0 = # of size 2 clusters
    1740 = # of size 3 clusters
      60 = # of size 4 clusters
       0 = # of frozen angles
  find clusters CPU = 0.001 seconds
fix             2 all momentum 5000 linear 1 1 1

dump            1 all custom 10000 "lmp_equiliv.lammpstrj" id mol type xs ys zs ix iy iz
dump_modify     1 sort id
#dump_modify     2 sort id

velocity        all create 550 12345

fix             3 all nvt temp 550 550 100. tchain 3

timestep        1.6
run             100000
PPPM initialization ...
  G vector (1/distance) = 0.18008997
  grid = 20 20 20
  stencil order = 4
  estimated absolute RMS force accuracy = 0.0033202034
  estimated relative force accuracy = 9.998694e-06
  3d grid and FFT values/proc = 9375 4000
Step Time Temp PotEng KinEng TotEng Enthalpy Press Volume Density
0            0          550    194.64065    6949.6096    7144.2502    9466.4488    189.44009     840526.8  0.050000443
Averages over the last 11 of 21 rows, steps 50000 to 100000:
Temp PotEng KinEng TotEng Enthalpy Press Volume Density
548.583 7713.3 6931.7 14645 14592.9 -4.25228 840527 0.0500004
Loop time of 335.735 on 2 procs for 100000 steps with 5460 atoms

#unfix           3
#unfix		5

Please see the log.cite file for references relevant to this simulation
